<?xml version="1.0" encoding="utf-8"?>
<!DOCTYPE population SYSTEM "http://www.matsim.org/files/dtd/population_v6.dtd">

<population>



<!-- ====================================================================== -->

	<person id="car_home1_work1_0">
		<plan selected="yes">
			<activity type="home" x="-4563968.664192336" y="1.2713791625326546E10" >
			</activity>
			<leg mode="car">
			</leg>
			<activity type="work" x="6.828564211086228E7" y="0.0" >
			</activity>
			<leg mode="car">
			</leg>
		</plan>

	</person>

<!-- ====================================================================== -->

	<person id="car_home1_work1_1">
		<plan selected="yes">
			<activity type="home" x="-4563968.664192336" y="1.2713791625326546E10" >
			</activity>
			<leg mode="car">
			</leg>
			<activity type="work" x="6.828564211086228E7" y="0.0" >
			</activity>
			<leg mode="car">
			</leg>
		</plan>

	</person>

<!-- ====================================================================== -->

	<person id="car_home1_work1_10">
		<plan selected="yes">
			<activity type="home" x="-4563968.664192336" y="1.2713791625326546E10" >
			</activity>
			<leg mode="car">
			</leg>
			<activity type="work" x="6.828564211086228E7" y="0.0" >
			</activity>
			<leg mode="car">
			</leg>
		</plan>

	</person>

<!-- ====================================================================== -->

	<person id="car_home1_work1_11">
		<plan selected="yes">
			<activity type="home" x="-4563968.664192336" y="1.2713791625326546E10" >
			</activity>
			<leg mode="car">
			</leg>
			<activity type="work" x="6.828564211086228E7" y="0.0" >
			</activity>
			<leg mode="car">
			</leg>
		</plan>

	</person>

<!-- ====================================================================== -->

	<person id="car_home1_work1_12">
		<plan selected="yes">
			<activity type="home" x="-4563968.664192336" y="1.2713791625326546E10" >
			</activity>
			<leg mode="car">
			</leg>
			<activity type="work" x="6.828564211086228E7" y="0.0" >
			</activity>
			<leg mode="car">
			</leg>
		</plan>

	</person>

<!-- ====================================================================== -->

	<person id="car_home1_work1_13">
		<plan selected="yes">
			<activity type="home" x="-4563968.664192336" y="1.2713791625326546E10" >
			</activity>
			<leg mode="car">
			</leg>
			<activity type="work" x="6.828564211086228E7" y="0.0" >
			</activity>
			<leg mode="car">
			</leg>
		</plan>

	</person>

<!-- ====================================================================== -->

	<person id="car_home1_work1_14">
		<plan selected="yes">
			<activity type="home" x="-4563968.664192336" y="1.2713791625326546E10" >
			</activity>
			<leg mode="car">
			</leg>
			<activity type="work" x="6.828564211086228E7" y="0.0" >
			</activity>
			<leg mode="car">
			</leg>
		</plan>

	</person>

<!-- ====================================================================== -->

	<person id="car_home1_work1_15">
		<plan selected="yes">
			<activity type="home" x="-4563968.664192336" y="1.2713791625326546E10" >
			</activity>
			<leg mode="car">
			</leg>
			<activity type="work" x="6.828564211086228E7" y="0.0" >
			</activity>
			<leg mode="car">
			</leg>
		</plan>

	</person>

<!-- ====================================================================== -->

	<person id="car_home1_work1_16">
		<plan selected="yes">
			<activity type="home" x="-4563968.664192336" y="1.2713791625326546E10" >
			</activity>
			<leg mode="car">
			</leg>
			<activity type="work" x="6.828564211086228E7" y="0.0" >
			</activity>
			<leg mode="car">
			</leg>
		</plan>

	</person>

<!-- ====================================================================== -->

	<person id="car_home1_work1_17">
		<plan selected="yes">
			<activity type="home" x="-4563968.664192336" y="1.2713791625326546E10" >
			</activity>
			<leg mode="car">
			</leg>
			<activity type="work" x="6.828564211086228E7" y="0.0" >
			</activity>
			<leg mode="car">
			</leg>
		</plan>

	</person>

<!-- ====================================================================== -->

	<person id="car_home1_work1_18">
		<plan selected="yes">
			<activity type="home" x="-4563968.664192336" y="1.2713791625326546E10" >
			</activity>
			<leg mode="car">
			</leg>
			<activity type="work" x="6.828564211086228E7" y="0.0" >
			</activity>
			<leg mode="car">
			</leg>
		</plan>

	</person>

<!-- ====================================================================== -->

	<person id="car_home1_work1_19">
		<plan selected="yes">
			<activity type="home" x="-4563968.664192336" y="1.2713791625326546E10" >
			</activity>
			<leg mode="car">
			</leg>
			<activity type="work" x="6.828564211086228E7" y="0.0" >
			</activity>
			<leg mode="car">
			</leg>
		</plan>

	</person>

<!-- ====================================================================== -->

	<person id="car_home1_work1_2">
		<plan selected="yes">
			<activity type="home" x="-4563968.664192336" y="1.2713791625326546E10" >
			</activity>
			<leg mode="car">
			</leg>
			<activity type="work" x="6.828564211086228E7" y="0.0" >
			</activity>
			<leg mode="car">
			</leg>
		</plan>

	</person>

<!-- ====================================================================== -->

	<person id="car_home1_work1_3">
		<plan selected="yes">
			<activity type="home" x="-4563968.664192336" y="1.2713791625326546E10" >
			</activity>
			<leg mode="car">
			</leg>
			<activity type="work" x="6.828564211086228E7" y="0.0" >
			</activity>
			<leg mode="car">
			</leg>
		</plan>

	</person>

<!-- ====================================================================== -->

	<person id="car_home1_work1_4">
		<plan selected="yes">
			<activity type="home" x="-4563968.664192336" y="1.2713791625326546E10" >
			</activity>
			<leg mode="car">
			</leg>
			<activity type="work" x="6.828564211086228E7" y="0.0" >
			</activity>
			<leg mode="car">
			</leg>
		</plan>

	</person>

<!-- ====================================================================== -->

	<person id="car_home1_work1_5">
		<plan selected="yes">
			<activity type="home" x="-4563968.664192336" y="1.2713791625326546E10" >
			</activity>
			<leg mode="car">
			</leg>
			<activity type="work" x="6.828564211086228E7" y="0.0" >
			</activity>
			<leg mode="car">
			</leg>
		</plan>

	</person>

<!-- ====================================================================== -->

	<person id="car_home1_work1_6">
		<plan selected="yes">
			<activity type="home" x="-4563968.664192336" y="1.2713791625326546E10" >
			</activity>
			<leg mode="car">
			</leg>
			<activity type="work" x="6.828564211086228E7" y="0.0" >
			</activity>
			<leg mode="car">
			</leg>
		</plan>

	</person>

<!-- ====================================================================== -->

	<person id="car_home1_work1_7">
		<plan selected="yes">
			<activity type="home" x="-4563968.664192336" y="1.2713791625326546E10" >
			</activity>
			<leg mode="car">
			</leg>
			<activity type="work" x="6.828564211086228E7" y="0.0" >
			</activity>
			<leg mode="car">
			</leg>
		</plan>

	</person>

<!-- ====================================================================== -->

	<person id="car_home1_work1_8">
		<plan selected="yes">
			<activity type="home" x="-4563968.664192336" y="1.2713791625326546E10" >
			</activity>
			<leg mode="car">
			</leg>
			<activity type="work" x="6.828564211086228E7" y="0.0" >
			</activity>
			<leg mode="car">
			</leg>
		</plan>

	</person>

<!-- ====================================================================== -->

	<person id="car_home1_work1_9">
		<plan selected="yes">
			<activity type="home" x="-4563968.664192336" y="1.2713791625326546E10" >
			</activity>
			<leg mode="car">
			</leg>
			<activity type="work" x="6.828564211086228E7" y="0.0" >
			</activity>
			<leg mode="car">
			</leg>
		</plan>

	</person>

<!-- ====================================================================== -->

</population>
